
---------- Begin Simulation Statistics ----------
sim_seconds                                  0.039164                       # Number of seconds simulated
sim_ticks                                 39163611000                       # Number of ticks simulated
final_tick                                39163611000                       # Number of ticks from beginning of simulation (restored from checkpoints and never reset)
sim_freq                                 1000000000000                       # Frequency of simulated ticks
host_inst_rate                                 110499                       # Simulator instruction rate (inst/s)
host_op_rate                                   110499                       # Simulator op (including micro ops) rate (op/s)
host_tick_rate                              126979328                       # Simulator tick rate (ticks/s)
host_mem_usage                                 172644                       # Number of bytes of host memory used
host_seconds                                   308.43                       # Real time elapsed on the host
sim_insts                                    34080624                       # Number of instructions simulated
sim_ops                                      34080624                       # Number of ops (including micro ops) simulated
system.voltage_domain.voltage                       1                       # Voltage in Volts
system.clk_domain.clock                          1000                       # Clock period in ticks
system.mem_ctrls.pwrStateResidencyTicks::UNDEFINED  39163611000                       # Cumulative time (in ticks) in various power states
system.mem_ctrls.bytes_read::cpu.inst           52224                       # Number of bytes read from this memory
system.mem_ctrls.bytes_read::cpu.data        30500800                       # Number of bytes read from this memory
system.mem_ctrls.bytes_read::total           30553024                       # Number of bytes read from this memory
system.mem_ctrls.bytes_inst_read::cpu.inst        52224                       # Number of instructions bytes read from this memory
system.mem_ctrls.bytes_inst_read::total         52224                       # Number of instructions bytes read from this memory
system.mem_ctrls.bytes_written::writebacks     16422976                       # Number of bytes written to this memory
system.mem_ctrls.bytes_written::total        16422976                       # Number of bytes written to this memory
system.mem_ctrls.num_reads::cpu.inst              816                       # Number of read requests responded to by this memory
system.mem_ctrls.num_reads::cpu.data           476575                       # Number of read requests responded to by this memory
system.mem_ctrls.num_reads::total              477391                       # Number of read requests responded to by this memory
system.mem_ctrls.num_writes::writebacks        256609                       # Number of write requests responded to by this memory
system.mem_ctrls.num_writes::total             256609                       # Number of write requests responded to by this memory
system.mem_ctrls.bw_read::cpu.inst            1333483                       # Total read bandwidth from this memory (bytes/s)
system.mem_ctrls.bw_read::cpu.data          778804590                       # Total read bandwidth from this memory (bytes/s)
system.mem_ctrls.bw_read::total             780138073                       # Total read bandwidth from this memory (bytes/s)
system.mem_ctrls.bw_inst_read::cpu.inst       1333483                       # Instruction read bandwidth from this memory (bytes/s)
system.mem_ctrls.bw_inst_read::total          1333483                       # Instruction read bandwidth from this memory (bytes/s)
system.mem_ctrls.bw_write::writebacks       419342741                       # Write bandwidth from this memory (bytes/s)
system.mem_ctrls.bw_write::total            419342741                       # Write bandwidth from this memory (bytes/s)
system.mem_ctrls.bw_total::writebacks       419342741                       # Total bandwidth to/from this memory (bytes/s)
system.mem_ctrls.bw_total::cpu.inst           1333483                       # Total bandwidth to/from this memory (bytes/s)
system.mem_ctrls.bw_total::cpu.data         778804590                       # Total bandwidth to/from this memory (bytes/s)
system.mem_ctrls.bw_total::total           1199480814                       # Total bandwidth to/from this memory (bytes/s)
system.mem_ctrls.readReqs                      477391                       # Number of read requests accepted
system.mem_ctrls.writeReqs                     256951                       # Number of write requests accepted
system.mem_ctrls.readBursts                    477391                       # Number of DRAM read bursts, including those serviced by the write queue
system.mem_ctrls.writeBursts                   256951                       # Number of DRAM write bursts, including those merged in the write queue
system.mem_ctrls.bytesReadDRAM               30505728                       # Total number of bytes read from DRAM
system.mem_ctrls.bytesReadWrQ                   47296                       # Total number of bytes read from write queue
system.mem_ctrls.bytesWritten                16441984                       # Total number of bytes written to DRAM
system.mem_ctrls.bytesReadSys                30553024                       # Total read bytes from the system interface side
system.mem_ctrls.bytesWrittenSys             16444864                       # Total written bytes from the system interface side
system.mem_ctrls.servicedByWrQ                    739                       # Number of DRAM read bursts serviced by the write queue
system.mem_ctrls.mergedWrBursts                    27                       # Number of DRAM write bursts merged with an existing one
system.mem_ctrls.neitherReadNorWriteReqs            0                       # Number of requests that are neither read nor write
system.mem_ctrls.perBankRdBursts::0             38216                       # Per bank write bursts
system.mem_ctrls.perBankRdBursts::1             30191                       # Per bank write bursts
system.mem_ctrls.perBankRdBursts::2             30084                       # Per bank write bursts
system.mem_ctrls.perBankRdBursts::3             29089                       # Per bank write bursts
system.mem_ctrls.perBankRdBursts::4             30467                       # Per bank write bursts
system.mem_ctrls.perBankRdBursts::5             28501                       # Per bank write bursts
system.mem_ctrls.perBankRdBursts::6             24934                       # Per bank write bursts
system.mem_ctrls.perBankRdBursts::7             24986                       # Per bank write bursts
system.mem_ctrls.perBankRdBursts::8             24919                       # Per bank write bursts
system.mem_ctrls.perBankRdBursts::9             24030                       # Per bank write bursts
system.mem_ctrls.perBankRdBursts::10            22849                       # Per bank write bursts
system.mem_ctrls.perBankRdBursts::11            23476                       # Per bank write bursts
system.mem_ctrls.perBankRdBursts::12            40763                       # Per bank write bursts
system.mem_ctrls.perBankRdBursts::13            35275                       # Per bank write bursts
system.mem_ctrls.perBankRdBursts::14            35082                       # Per bank write bursts
system.mem_ctrls.perBankRdBursts::15            33790                       # Per bank write bursts
system.mem_ctrls.perBankWrBursts::0             20357                       # Per bank write bursts
system.mem_ctrls.perBankWrBursts::1             15949                       # Per bank write bursts
system.mem_ctrls.perBankWrBursts::2             16028                       # Per bank write bursts
system.mem_ctrls.perBankWrBursts::3             15653                       # Per bank write bursts
system.mem_ctrls.perBankWrBursts::4             16244                       # Per bank write bursts
system.mem_ctrls.perBankWrBursts::5             15049                       # Per bank write bursts
system.mem_ctrls.perBankWrBursts::6             13406                       # Per bank write bursts
system.mem_ctrls.perBankWrBursts::7             13787                       # Per bank write bursts
system.mem_ctrls.perBankWrBursts::8             13149                       # Per bank write bursts
system.mem_ctrls.perBankWrBursts::9             12956                       # Per bank write bursts
system.mem_ctrls.perBankWrBursts::10            12269                       # Per bank write bursts
system.mem_ctrls.perBankWrBursts::11            12727                       # Per bank write bursts
system.mem_ctrls.perBankWrBursts::12            21735                       # Per bank write bursts
system.mem_ctrls.perBankWrBursts::13            19614                       # Per bank write bursts
system.mem_ctrls.perBankWrBursts::14            19362                       # Per bank write bursts
system.mem_ctrls.perBankWrBursts::15            18621                       # Per bank write bursts
system.mem_ctrls.numRdRetry                         0                       # Number of times read queue was full causing retry
system.mem_ctrls.numWrRetry                         0                       # Number of times write queue was full causing retry
system.mem_ctrls.totGap                   39163582000                       # Total gap between requests
system.mem_ctrls.readPktSize::0                     0                       # Read request sizes (log2)
system.mem_ctrls.readPktSize::1                     0                       # Read request sizes (log2)
system.mem_ctrls.readPktSize::2                     0                       # Read request sizes (log2)
system.mem_ctrls.readPktSize::3                     0                       # Read request sizes (log2)
system.mem_ctrls.readPktSize::4                     0                       # Read request sizes (log2)
system.mem_ctrls.readPktSize::5                     0                       # Read request sizes (log2)
system.mem_ctrls.readPktSize::6                477391                       # Read request sizes (log2)
system.mem_ctrls.writePktSize::0                    0                       # Write request sizes (log2)
system.mem_ctrls.writePktSize::1                    0                       # Write request sizes (log2)
system.mem_ctrls.writePktSize::2                    0                       # Write request sizes (log2)
system.mem_ctrls.writePktSize::3                    0                       # Write request sizes (log2)
system.mem_ctrls.writePktSize::4                    0                       # Write request sizes (log2)
system.mem_ctrls.writePktSize::5                    0                       # Write request sizes (log2)
system.mem_ctrls.writePktSize::6               256951                       # Write request sizes (log2)
system.mem_ctrls.rdQLenPdf::0                  308259                       # What read queue length does an incoming req see
system.mem_ctrls.rdQLenPdf::1                  168205                       # What read queue length does an incoming req see
system.mem_ctrls.rdQLenPdf::2                     174                       # What read queue length does an incoming req see
system.mem_ctrls.rdQLenPdf::3                      13                       # What read queue length does an incoming req see
system.mem_ctrls.rdQLenPdf::4                       1                       # What read queue length does an incoming req see
system.mem_ctrls.rdQLenPdf::5                       0                       # What read queue length does an incoming req see
system.mem_ctrls.rdQLenPdf::6                       0                       # What read queue length does an incoming req see
system.mem_ctrls.rdQLenPdf::7                       0                       # What read queue length does an incoming req see
system.mem_ctrls.rdQLenPdf::8                       0                       # What read queue length does an incoming req see
system.mem_ctrls.rdQLenPdf::9                       0                       # What read queue length does an incoming req see
system.mem_ctrls.rdQLenPdf::10                      0                       # What read queue length does an incoming req see
system.mem_ctrls.rdQLenPdf::11                      0                       # What read queue length does an incoming req see
system.mem_ctrls.rdQLenPdf::12                      0                       # What read queue length does an incoming req see
system.mem_ctrls.rdQLenPdf::13                      0                       # What read queue length does an incoming req see
system.mem_ctrls.rdQLenPdf::14                      0                       # What read queue length does an incoming req see
system.mem_ctrls.rdQLenPdf::15                      0                       # What read queue length does an incoming req see
system.mem_ctrls.rdQLenPdf::16                      0                       # What read queue length does an incoming req see
system.mem_ctrls.rdQLenPdf::17                      0                       # What read queue length does an incoming req see
system.mem_ctrls.rdQLenPdf::18                      0                       # What read queue length does an incoming req see
system.mem_ctrls.rdQLenPdf::19                      0                       # What read queue length does an incoming req see
system.mem_ctrls.rdQLenPdf::20                      0                       # What read queue length does an incoming req see
system.mem_ctrls.rdQLenPdf::21                      0                       # What read queue length does an incoming req see
system.mem_ctrls.rdQLenPdf::22                      0                       # What read queue length does an incoming req see
system.mem_ctrls.rdQLenPdf::23                      0                       # What read queue length does an incoming req see
system.mem_ctrls.rdQLenPdf::24                      0                       # What read queue length does an incoming req see
system.mem_ctrls.rdQLenPdf::25                      0                       # What read queue length does an incoming req see
system.mem_ctrls.rdQLenPdf::26                      0                       # What read queue length does an incoming req see
system.mem_ctrls.rdQLenPdf::27                      0                       # What read queue length does an incoming req see
system.mem_ctrls.rdQLenPdf::28                      0                       # What read queue length does an incoming req see
system.mem_ctrls.rdQLenPdf::29                      0                       # What read queue length does an incoming req see
system.mem_ctrls.rdQLenPdf::30                      0                       # What read queue length does an incoming req see
system.mem_ctrls.rdQLenPdf::31                      0                       # What read queue length does an incoming req see
system.mem_ctrls.wrQLenPdf::0                       1                       # What write queue length does an incoming req see
system.mem_ctrls.wrQLenPdf::1                       1                       # What write queue length does an incoming req see
system.mem_ctrls.wrQLenPdf::2                       1                       # What write queue length does an incoming req see
system.mem_ctrls.wrQLenPdf::3                       1                       # What write queue length does an incoming req see
system.mem_ctrls.wrQLenPdf::4                       1                       # What write queue length does an incoming req see
system.mem_ctrls.wrQLenPdf::5                       1                       # What write queue length does an incoming req see
system.mem_ctrls.wrQLenPdf::6                       1                       # What write queue length does an incoming req see
system.mem_ctrls.wrQLenPdf::7                       1                       # What write queue length does an incoming req see
system.mem_ctrls.wrQLenPdf::8                       1                       # What write queue length does an incoming req see
system.mem_ctrls.wrQLenPdf::9                       1                       # What write queue length does an incoming req see
system.mem_ctrls.wrQLenPdf::10                      1                       # What write queue length does an incoming req see
system.mem_ctrls.wrQLenPdf::11                      1                       # What write queue length does an incoming req see
system.mem_ctrls.wrQLenPdf::12                      1                       # What write queue length does an incoming req see
system.mem_ctrls.wrQLenPdf::13                      1                       # What write queue length does an incoming req see
system.mem_ctrls.wrQLenPdf::14                      1                       # What write queue length does an incoming req see
system.mem_ctrls.wrQLenPdf::15                   1150                       # What write queue length does an incoming req see
system.mem_ctrls.wrQLenPdf::16                   1308                       # What write queue length does an incoming req see
system.mem_ctrls.wrQLenPdf::17                  14418                       # What write queue length does an incoming req see
system.mem_ctrls.wrQLenPdf::18                  15920                       # What write queue length does an incoming req see
system.mem_ctrls.wrQLenPdf::19                  15936                       # What write queue length does an incoming req see
system.mem_ctrls.wrQLenPdf::20                  15954                       # What write queue length does an incoming req see
system.mem_ctrls.wrQLenPdf::21                  15924                       # What write queue length does an incoming req see
system.mem_ctrls.wrQLenPdf::22                  15945                       # What write queue length does an incoming req see
system.mem_ctrls.wrQLenPdf::23                  15935                       # What write queue length does an incoming req see
system.mem_ctrls.wrQLenPdf::24                  16065                       # What write queue length does an incoming req see
system.mem_ctrls.wrQLenPdf::25                  16084                       # What write queue length does an incoming req see
system.mem_ctrls.wrQLenPdf::26                  16163                       # What write queue length does an incoming req see
system.mem_ctrls.wrQLenPdf::27                  16137                       # What write queue length does an incoming req see
system.mem_ctrls.wrQLenPdf::28                  16088                       # What write queue length does an incoming req see
system.mem_ctrls.wrQLenPdf::29                  16109                       # What write queue length does an incoming req see
system.mem_ctrls.wrQLenPdf::30                  15952                       # What write queue length does an incoming req see
system.mem_ctrls.wrQLenPdf::31                  15921                       # What write queue length does an incoming req see
system.mem_ctrls.wrQLenPdf::32                  15894                       # What write queue length does an incoming req see
system.mem_ctrls.wrQLenPdf::33                      6                       # What write queue length does an incoming req see
system.mem_ctrls.wrQLenPdf::34                      0                       # What write queue length does an incoming req see
system.mem_ctrls.wrQLenPdf::35                      0                       # What write queue length does an incoming req see
system.mem_ctrls.wrQLenPdf::36                      0                       # What write queue length does an incoming req see
system.mem_ctrls.wrQLenPdf::37                      0                       # What write queue length does an incoming req see
system.mem_ctrls.wrQLenPdf::38                      0                       # What write queue length does an incoming req see
system.mem_ctrls.wrQLenPdf::39                      0                       # What write queue length does an incoming req see
system.mem_ctrls.wrQLenPdf::40                      0                       # What write queue length does an incoming req see
system.mem_ctrls.wrQLenPdf::41                      0                       # What write queue length does an incoming req see
system.mem_ctrls.wrQLenPdf::42                      0                       # What write queue length does an incoming req see
system.mem_ctrls.wrQLenPdf::43                      0                       # What write queue length does an incoming req see
system.mem_ctrls.wrQLenPdf::44                      0                       # What write queue length does an incoming req see
system.mem_ctrls.wrQLenPdf::45                      0                       # What write queue length does an incoming req see
system.mem_ctrls.wrQLenPdf::46                      0                       # What write queue length does an incoming req see
system.mem_ctrls.wrQLenPdf::47                      0                       # What write queue length does an incoming req see
system.mem_ctrls.wrQLenPdf::48                      0                       # What write queue length does an incoming req see
system.mem_ctrls.wrQLenPdf::49                      0                       # What write queue length does an incoming req see
system.mem_ctrls.wrQLenPdf::50                      0                       # What write queue length does an incoming req see
system.mem_ctrls.wrQLenPdf::51                      0                       # What write queue length does an incoming req see
system.mem_ctrls.wrQLenPdf::52                      0                       # What write queue length does an incoming req see
system.mem_ctrls.wrQLenPdf::53                      0                       # What write queue length does an incoming req see
system.mem_ctrls.wrQLenPdf::54                      0                       # What write queue length does an incoming req see
system.mem_ctrls.wrQLenPdf::55                      0                       # What write queue length does an incoming req see
system.mem_ctrls.wrQLenPdf::56                      0                       # What write queue length does an incoming req see
system.mem_ctrls.wrQLenPdf::57                      0                       # What write queue length does an incoming req see
system.mem_ctrls.wrQLenPdf::58                      0                       # What write queue length does an incoming req see
system.mem_ctrls.wrQLenPdf::59                      0                       # What write queue length does an incoming req see
system.mem_ctrls.wrQLenPdf::60                      0                       # What write queue length does an incoming req see
system.mem_ctrls.wrQLenPdf::61                      0                       # What write queue length does an incoming req see
system.mem_ctrls.wrQLenPdf::62                      0                       # What write queue length does an incoming req see
system.mem_ctrls.wrQLenPdf::63                      0                       # What write queue length does an incoming req see
system.mem_ctrls.bytesPerActivate::samples        82960                       # Bytes accessed per row activation
system.mem_ctrls.bytesPerActivate::mean    565.873867                       # Bytes accessed per row activation
system.mem_ctrls.bytesPerActivate::gmean   320.070271                       # Bytes accessed per row activation
system.mem_ctrls.bytesPerActivate::stdev   435.864940                       # Bytes accessed per row activation
system.mem_ctrls.bytesPerActivate::0-127        27444     33.08%     33.08% # Bytes accessed per row activation
system.mem_ctrls.bytesPerActivate::128-255         5185      6.25%     39.33% # Bytes accessed per row activation
system.mem_ctrls.bytesPerActivate::256-383         3221      3.88%     43.21% # Bytes accessed per row activation
system.mem_ctrls.bytesPerActivate::384-511         2816      3.39%     46.61% # Bytes accessed per row activation
system.mem_ctrls.bytesPerActivate::512-639         2936      3.54%     50.15% # Bytes accessed per row activation
system.mem_ctrls.bytesPerActivate::640-767         2425      2.92%     53.07% # Bytes accessed per row activation
system.mem_ctrls.bytesPerActivate::768-895         2422      2.92%     55.99% # Bytes accessed per row activation
system.mem_ctrls.bytesPerActivate::896-1023         2499      3.01%     59.00% # Bytes accessed per row activation
system.mem_ctrls.bytesPerActivate::1024-1151        34012     41.00%    100.00% # Bytes accessed per row activation
system.mem_ctrls.bytesPerActivate::total        82960                       # Bytes accessed per row activation
system.mem_ctrls.rdPerTurnAround::samples        15894                       # Reads before turning the bus around for writes
system.mem_ctrls.rdPerTurnAround::mean      29.989304                       # Reads before turning the bus around for writes
system.mem_ctrls.rdPerTurnAround::gmean     27.087958                       # Reads before turning the bus around for writes
system.mem_ctrls.rdPerTurnAround::stdev     24.556542                       # Reads before turning the bus around for writes
system.mem_ctrls.rdPerTurnAround::0-31           6269     39.44%     39.44% # Reads before turning the bus around for writes
system.mem_ctrls.rdPerTurnAround::32-63          9248     58.19%     97.63% # Reads before turning the bus around for writes
system.mem_ctrls.rdPerTurnAround::64-95           190      1.20%     98.82% # Reads before turning the bus around for writes
system.mem_ctrls.rdPerTurnAround::96-127           64      0.40%     99.23% # Reads before turning the bus around for writes
system.mem_ctrls.rdPerTurnAround::128-159           49      0.31%     99.53% # Reads before turning the bus around for writes
system.mem_ctrls.rdPerTurnAround::160-191           18      0.11%     99.65% # Reads before turning the bus around for writes
system.mem_ctrls.rdPerTurnAround::192-223           10      0.06%     99.71% # Reads before turning the bus around for writes
system.mem_ctrls.rdPerTurnAround::224-255            5      0.03%     99.74% # Reads before turning the bus around for writes
system.mem_ctrls.rdPerTurnAround::256-287           10      0.06%     99.80% # Reads before turning the bus around for writes
system.mem_ctrls.rdPerTurnAround::288-319            3      0.02%     99.82% # Reads before turning the bus around for writes
system.mem_ctrls.rdPerTurnAround::320-351            3      0.02%     99.84% # Reads before turning the bus around for writes
system.mem_ctrls.rdPerTurnAround::352-383            3      0.02%     99.86% # Reads before turning the bus around for writes
system.mem_ctrls.rdPerTurnAround::384-415            4      0.03%     99.89% # Reads before turning the bus around for writes
system.mem_ctrls.rdPerTurnAround::416-447            4      0.03%     99.91% # Reads before turning the bus around for writes
system.mem_ctrls.rdPerTurnAround::448-479            1      0.01%     99.92% # Reads before turning the bus around for writes
system.mem_ctrls.rdPerTurnAround::480-511            3      0.02%     99.94% # Reads before turning the bus around for writes
system.mem_ctrls.rdPerTurnAround::544-575           10      0.06%    100.00% # Reads before turning the bus around for writes
system.mem_ctrls.rdPerTurnAround::total         15894                       # Reads before turning the bus around for writes
system.mem_ctrls.wrPerTurnAround::samples        15894                       # Writes before turning the bus around for reads
system.mem_ctrls.wrPerTurnAround::mean      16.163710                       # Writes before turning the bus around for reads
system.mem_ctrls.wrPerTurnAround::gmean     16.155200                       # Writes before turning the bus around for reads
system.mem_ctrls.wrPerTurnAround::stdev      0.542536                       # Writes before turning the bus around for reads
system.mem_ctrls.wrPerTurnAround::16            14493     91.19%     91.19% # Writes before turning the bus around for reads
system.mem_ctrls.wrPerTurnAround::17              248      1.56%     92.75% # Writes before turning the bus around for reads
system.mem_ctrls.wrPerTurnAround::18             1107      6.96%     99.71% # Writes before turning the bus around for reads
system.mem_ctrls.wrPerTurnAround::19               44      0.28%     99.99% # Writes before turning the bus around for reads
system.mem_ctrls.wrPerTurnAround::20                2      0.01%    100.00% # Writes before turning the bus around for reads
system.mem_ctrls.wrPerTurnAround::total         15894                       # Writes before turning the bus around for reads
system.mem_ctrls.totQLat                   5196171000                       # Total ticks spent queuing
system.mem_ctrls.totMemAccLat             14133396000                       # Total ticks spent from burst creation until serviced by the DRAM
system.mem_ctrls.totBusLat                 2383260000                       # Total ticks spent in databus transfers
system.mem_ctrls.avgQLat                     10901.39                       # Average queueing delay per DRAM burst
system.mem_ctrls.avgBusLat                    5000.00                       # Average bus latency per DRAM burst
system.mem_ctrls.avgMemAccLat                29651.39                       # Average memory access latency per DRAM burst
system.mem_ctrls.avgRdBW                       778.93                       # Average DRAM read bandwidth in MiByte/s
system.mem_ctrls.avgWrBW                       419.83                       # Average achieved write bandwidth in MiByte/s
system.mem_ctrls.avgRdBWSys                    780.14                       # Average system read bandwidth in MiByte/s
system.mem_ctrls.avgWrBWSys                    419.90                       # Average system write bandwidth in MiByte/s
system.mem_ctrls.peakBW                      12800.00                       # Theoretical peak bandwidth in MiByte/s
system.mem_ctrls.busUtil                         9.37                       # Data bus utilization in percentage
system.mem_ctrls.busUtilRead                     6.09                       # Data bus utilization in percentage for reads
system.mem_ctrls.busUtilWrite                    3.28                       # Data bus utilization in percentage for writes
system.mem_ctrls.avgRdQLen                       1.33                       # Average read queue length when enqueuing
system.mem_ctrls.avgWrQLen                      25.54                       # Average write queue length when enqueuing
system.mem_ctrls.readRowHits                   414715                       # Number of row buffer hits during reads
system.mem_ctrls.writeRowHits                  235871                       # Number of row buffer hits during writes
system.mem_ctrls.readRowHitRate                 87.01                       # Row buffer hit rate for reads
system.mem_ctrls.writeRowHitRate                91.81                       # Row buffer hit rate for writes
system.mem_ctrls.avgGap                      53331.53                       # Average gap between requests
system.mem_ctrls.pageHitRate                    88.69                       # Row buffer hit rate, read and write combined
system.mem_ctrls_0.actEnergy                307639080                       # Energy for activate commands per rank (pJ)
system.mem_ctrls_0.preEnergy                167858625                       # Energy for precharge commands per rank (pJ)
system.mem_ctrls_0.readEnergy              1843865400                       # Energy for read commands per rank (pJ)
system.mem_ctrls_0.writeEnergy              819447840                       # Energy for write commands per rank (pJ)
system.mem_ctrls_0.refreshEnergy           2557548240                       # Energy for refresh commands per rank (pJ)
system.mem_ctrls_0.actBackEnergy          18787072320                       # Energy for active background per rank (pJ)
system.mem_ctrls_0.preBackEnergy           7014490500                       # Energy for precharge background per rank (pJ)
system.mem_ctrls_0.totalEnergy            31497922005                       # Total energy per rank (pJ)
system.mem_ctrls_0.averagePower            804.394685                       # Core power per rank (mW)
system.mem_ctrls_0.memoryStateTime::IDLE  11429268000                       # Time in different power states
system.mem_ctrls_0.memoryStateTime::REF    1307540000                       # Time in different power states
system.mem_ctrls_0.memoryStateTime::PRE_PDN            0                       # Time in different power states
system.mem_ctrls_0.memoryStateTime::ACT   26422645000                       # Time in different power states
system.mem_ctrls_0.memoryStateTime::ACT_PDN            0                       # Time in different power states
system.mem_ctrls_1.actEnergy                319311720                       # Energy for activate commands per rank (pJ)
system.mem_ctrls_1.preEnergy                174227625                       # Energy for precharge commands per rank (pJ)
system.mem_ctrls_1.readEnergy              1873232400                       # Energy for read commands per rank (pJ)
system.mem_ctrls_1.writeEnergy              844888320                       # Energy for write commands per rank (pJ)
system.mem_ctrls_1.refreshEnergy           2557548240                       # Energy for refresh commands per rank (pJ)
system.mem_ctrls_1.actBackEnergy          19744414110                       # Energy for active background per rank (pJ)
system.mem_ctrls_1.preBackEnergy           6174728250                       # Energy for precharge background per rank (pJ)
system.mem_ctrls_1.totalEnergy            31688350665                       # Total energy per rank (pJ)
system.mem_ctrls_1.averagePower            809.257470                       # Core power per rank (mW)
system.mem_ctrls_1.memoryStateTime::IDLE  10029134250                       # Time in different power states
system.mem_ctrls_1.memoryStateTime::REF    1307540000                       # Time in different power states
system.mem_ctrls_1.memoryStateTime::PRE_PDN            0                       # Time in different power states
system.mem_ctrls_1.memoryStateTime::ACT   27820655000                       # Time in different power states
system.mem_ctrls_1.memoryStateTime::ACT_PDN            0                       # Time in different power states
system.pwrStateResidencyTicks::UNDEFINED  39163611000                       # Cumulative time (in ticks) in various power states
system.cpu.branchPred.lookups                 6115854                       # Number of BP lookups
system.cpu.branchPred.condPredicted           3930110                       # Number of conditional branches predicted
system.cpu.branchPred.condIncorrect            410546                       # Number of conditional branches incorrect
system.cpu.branchPred.BTBLookups              5149232                       # Number of BTB lookups
system.cpu.branchPred.BTBHits                 3623105                       # Number of BTB hits
system.cpu.branchPred.BTBCorrect                    0                       # Number of correct BTB predictions (this stat may not work properly.
system.cpu.branchPred.BTBHitPct             70.362046                       # BTB Hit Percentage
system.cpu.branchPred.usedRAS                  760422                       # Number of times the RAS was used to get a target.
system.cpu.branchPred.RASInCorrect                  2                       # Number of incorrect RAS predictions.
system.cpu.branchPred.indirectLookups          295326                       # Number of indirect predictor lookups.
system.cpu.branchPred.indirectHits             295161                       # Number of indirect target hits.
system.cpu.branchPred.indirectMisses              165                       # Number of indirect misses.
system.cpu.branchPredindirectMispredicted           77                       # Number of mispredicted indirect branches.
system.cpu_voltage_domain.voltage                   1                       # Voltage in Volts
system.cpu_clk_domain.clock                       500                       # Clock period in ticks
system.cpu.dtb.fetch_hits                           0                       # ITB hits
system.cpu.dtb.fetch_misses                         0                       # ITB misses
system.cpu.dtb.fetch_acv                            0                       # ITB acv
system.cpu.dtb.fetch_accesses                       0                       # ITB accesses
system.cpu.dtb.read_hits                      7596693                       # DTB read hits
system.cpu.dtb.read_misses                       2472                       # DTB read misses
system.cpu.dtb.read_acv                             0                       # DTB read access violations
system.cpu.dtb.read_accesses                  7599165                       # DTB read accesses
system.cpu.dtb.write_hits                     6254492                       # DTB write hits
system.cpu.dtb.write_misses                      2961                       # DTB write misses
system.cpu.dtb.write_acv                            0                       # DTB write access violations
system.cpu.dtb.write_accesses                 6257453                       # DTB write accesses
system.cpu.dtb.data_hits                     13851185                       # DTB hits
system.cpu.dtb.data_misses                       5433                       # DTB misses
system.cpu.dtb.data_acv                             0                       # DTB access violations
system.cpu.dtb.data_accesses                 13856618                       # DTB accesses
system.cpu.itb.fetch_hits                    15642811                       # ITB hits
system.cpu.itb.fetch_misses                        39                       # ITB misses
system.cpu.itb.fetch_acv                            0                       # ITB acv
system.cpu.itb.fetch_accesses                15642850                       # ITB accesses
system.cpu.itb.read_hits                            0                       # DTB read hits
system.cpu.itb.read_misses                          0                       # DTB read misses
system.cpu.itb.read_acv                             0                       # DTB read access violations
system.cpu.itb.read_accesses                        0                       # DTB read accesses
system.cpu.itb.write_hits                           0                       # DTB write hits
system.cpu.itb.write_misses                         0                       # DTB write misses
system.cpu.itb.write_acv                            0                       # DTB write access violations
system.cpu.itb.write_accesses                       0                       # DTB write accesses
system.cpu.itb.data_hits                            0                       # DTB hits
system.cpu.itb.data_misses                          0                       # DTB misses
system.cpu.itb.data_acv                             0                       # DTB access violations
system.cpu.itb.data_accesses                        0                       # DTB accesses
system.cpu.workload.num_syscalls                   37                       # Number of system calls
system.cpu.pwrStateResidencyTicks::ON     39163611000                       # Cumulative time (in ticks) in various power states
system.cpu.numCycles                         78327223                       # number of cpu cycles simulated
system.cpu.numWorkItemsStarted                      0                       # number of work items this cpu started
system.cpu.numWorkItemsCompleted                    0                       # number of work items this cpu completed
system.cpu.fetch.icacheStallCycles           15976978                       # Number of cycles fetch is stalled on an Icache miss
system.cpu.fetch.Insts                       47197539                       # Number of instructions fetch has processed
system.cpu.fetch.Branches                     6115854                       # Number of branches that fetch encountered
system.cpu.fetch.predictedBranches            4678688                       # Number of branches that fetch has predicted taken
system.cpu.fetch.Cycles                      61875254                       # Number of cycles fetch has run and was not squashing or blocked
system.cpu.fetch.SquashCycles                  827199                       # Number of cycles fetch has spent squashing
system.cpu.fetch.TlbCycles                          2                       # Number of cycles fetch has spent waiting for tlb
system.cpu.fetch.MiscStallCycles                   30                       # Number of cycles fetch has spent waiting on interrupts, or bad addresses, or out of MSHRs
system.cpu.fetch.PendingTrapStallCycles          1125                       # Number of stall cycles due to pending traps
system.cpu.fetch.CacheLines                  15642811                       # Number of cache lines fetched
system.cpu.fetch.IcacheSquashes                 95873                       # Number of outstanding Icache misses that were squashed
system.cpu.fetch.rateDist::samples           78266988                       # Number of instructions fetched each cycle (Total)
system.cpu.fetch.rateDist::mean              0.603033                       # Number of instructions fetched each cycle (Total)
system.cpu.fetch.rateDist::stdev             1.166596                       # Number of instructions fetched each cycle (Total)
system.cpu.fetch.rateDist::underflows               0      0.00%      0.00% # Number of instructions fetched each cycle (Total)
system.cpu.fetch.rateDist::0                 58006659     74.11%     74.11% # Number of instructions fetched each cycle (Total)
system.cpu.fetch.rateDist::1                  5377088      6.87%     80.98% # Number of instructions fetched each cycle (Total)
system.cpu.fetch.rateDist::2                  7728709      9.87%     90.86% # Number of instructions fetched each cycle (Total)
system.cpu.fetch.rateDist::3                  2255095      2.88%     93.74% # Number of instructions fetched each cycle (Total)
system.cpu.fetch.rateDist::4                  4899437      6.26%    100.00% # Number of instructions fetched each cycle (Total)
system.cpu.fetch.rateDist::5                        0      0.00%    100.00% # Number of instructions fetched each cycle (Total)
system.cpu.fetch.rateDist::6                        0      0.00%    100.00% # Number of instructions fetched each cycle (Total)
system.cpu.fetch.rateDist::7                        0      0.00%    100.00% # Number of instructions fetched each cycle (Total)
system.cpu.fetch.rateDist::8                        0      0.00%    100.00% # Number of instructions fetched each cycle (Total)
system.cpu.fetch.rateDist::overflows                0      0.00%    100.00% # Number of instructions fetched each cycle (Total)
system.cpu.fetch.rateDist::min_value                0                       # Number of instructions fetched each cycle (Total)
system.cpu.fetch.rateDist::max_value                4                       # Number of instructions fetched each cycle (Total)
system.cpu.fetch.rateDist::total             78266988                       # Number of instructions fetched each cycle (Total)
system.cpu.fetch.branchRate                  0.078081                       # Number of branch fetches per cycle
system.cpu.fetch.rate                        0.602569                       # Number of inst fetches per cycle
system.cpu.decode.IdleCycles                  6636920                       # Number of cycles decode is idle
system.cpu.decode.BlockedCycles              50266599                       # Number of cycles decode is blocked
system.cpu.decode.RunCycles                   9742668                       # Number of cycles decode is running
system.cpu.decode.UnblockCycles              11207553                       # Number of cycles decode is unblocking
system.cpu.decode.SquashCycles                 413248                       # Number of cycles decode is squashing
system.cpu.decode.BranchResolved              1039882                       # Number of times decode resolved a branch
system.cpu.decode.BranchMispred                   363                       # Number of times decode detected a branch misprediction
system.cpu.decode.DecodedInsts               40973586                       # Number of instructions handled by decode
system.cpu.decode.SquashedInsts                   466                       # Number of squashed instructions handled by decode
system.cpu.rename.SquashCycles                 413248                       # Number of cycles rename is squashing
system.cpu.rename.IdleCycles                  9835847                       # Number of cycles rename is idle
system.cpu.rename.BlockCycles                41515214                       # Number of cycles rename is blocking
system.cpu.rename.serializeStallCycles         964004                       # count of cycles rename stalled for serializing inst
system.cpu.rename.RunCycles                  13489484                       # Number of cycles rename is running
system.cpu.rename.UnblockCycles              12049191                       # Number of cycles rename is unblocking
system.cpu.rename.RenamedInsts               40275745                       # Number of instructions processed by rename
system.cpu.rename.ROBFullEvents               5383138                       # Number of times rename has blocked due to ROB full
system.cpu.rename.IQFullEvents                    181                       # Number of times rename has blocked due to IQ full
system.cpu.rename.SQFullEvents                 311283                       # Number of times rename has blocked due to SQ full
system.cpu.rename.RenamedOperands            24300699                       # Number of destination operands rename has renamed
system.cpu.rename.RenameLookups              48126039                       # Number of register rename lookups that rename has made
system.cpu.rename.int_rename_lookups         48045916                       # Number of integer rename lookups
system.cpu.rename.fp_rename_lookups             40088                       # Number of floating rename lookups
system.cpu.rename.CommittedMaps              23192197                       # Number of HB maps that are committed
system.cpu.rename.UndoneMaps                  1108502                       # Number of HB maps that are undone due to squashing
system.cpu.rename.serializingInsts              80153                       # count of serializing insts renamed
system.cpu.rename.tempSerializingInsts          40068                       # count of temporary serializing insts renamed
system.cpu.rename.skidInsts                  17511067                       # count of insts added to the skid buffer
system.cpu.memDep0.insertedLoads              7682819                       # Number of loads inserted to the mem dependence unit.
system.cpu.memDep0.insertedStores             6287609                       # Number of stores inserted to the mem dependence unit.
system.cpu.memDep0.conflictingLoads             90007                       # Number of conflicting loads.
system.cpu.memDep0.conflictingStores            20002                       # Number of conflicting stores.
system.cpu.iq.iqInstsAdded                   34841307                       # Number of instructions added to the IQ (excludes non-spec)
system.cpu.iq.iqNonSpecInstsAdded               80104                       # Number of non-speculative instructions added to the IQ
system.cpu.iq.iqInstsIssued                  34870386                       # Number of instructions issued
system.cpu.iq.iqSquashedInstsExamined          840787                       # Number of squashed instructions iterated over during squash; mainly for profiling
system.cpu.iq.iqSquashedOperandsExamined       330224                       # Number of squashed operands that are examined and possibly removed from graph
system.cpu.iq.iqSquashedNonSpecRemoved              2                       # Number of squashed non-spec instructions that were removed
system.cpu.iq.issued_per_cycle::samples      78266988                       # Number of insts issued each cycle
system.cpu.iq.issued_per_cycle::mean         0.445531                       # Number of insts issued each cycle
system.cpu.iq.issued_per_cycle::stdev        0.719350                       # Number of insts issued each cycle
system.cpu.iq.issued_per_cycle::underflows            0      0.00%      0.00% # Number of insts issued each cycle
system.cpu.iq.issued_per_cycle::0            53296314     68.10%     68.10% # Number of insts issued each cycle
system.cpu.iq.issued_per_cycle::1            15744121     20.12%     88.21% # Number of insts issued each cycle
system.cpu.iq.issued_per_cycle::2             8563421     10.94%     99.15% # Number of insts issued each cycle
system.cpu.iq.issued_per_cycle::3              653107      0.83%     99.99% # Number of insts issued each cycle
system.cpu.iq.issued_per_cycle::4               10023      0.01%    100.00% # Number of insts issued each cycle
system.cpu.iq.issued_per_cycle::5                   2      0.00%    100.00% # Number of insts issued each cycle
system.cpu.iq.issued_per_cycle::6                   0      0.00%    100.00% # Number of insts issued each cycle
system.cpu.iq.issued_per_cycle::7                   0      0.00%    100.00% # Number of insts issued each cycle
system.cpu.iq.issued_per_cycle::8                   0      0.00%    100.00% # Number of insts issued each cycle
system.cpu.iq.issued_per_cycle::overflows            0      0.00%    100.00% # Number of insts issued each cycle
system.cpu.iq.issued_per_cycle::min_value            0                       # Number of insts issued each cycle
system.cpu.iq.issued_per_cycle::max_value            5                       # Number of insts issued each cycle
system.cpu.iq.issued_per_cycle::total        78266988                       # Number of insts issued each cycle
system.cpu.iq.fu_full::No_OpClass                   0      0.00%      0.00% # attempts to use FU when none available
system.cpu.iq.fu_full::IntAlu                       0      0.00%      0.00% # attempts to use FU when none available
system.cpu.iq.fu_full::IntMult                      0      0.00%      0.00% # attempts to use FU when none available
system.cpu.iq.fu_full::IntDiv                       0      0.00%      0.00% # attempts to use FU when none available
system.cpu.iq.fu_full::FloatAdd                     0      0.00%      0.00% # attempts to use FU when none available
system.cpu.iq.fu_full::FloatCmp                     0      0.00%      0.00% # attempts to use FU when none available
system.cpu.iq.fu_full::FloatCvt                     0      0.00%      0.00% # attempts to use FU when none available
system.cpu.iq.fu_full::FloatMult                    0      0.00%      0.00% # attempts to use FU when none available
system.cpu.iq.fu_full::FloatDiv                     0      0.00%      0.00% # attempts to use FU when none available
system.cpu.iq.fu_full::FloatSqrt                    0      0.00%      0.00% # attempts to use FU when none available
system.cpu.iq.fu_full::SimdAdd                      0      0.00%      0.00% # attempts to use FU when none available
system.cpu.iq.fu_full::SimdAddAcc                   0      0.00%      0.00% # attempts to use FU when none available
system.cpu.iq.fu_full::SimdAlu                      0      0.00%      0.00% # attempts to use FU when none available
system.cpu.iq.fu_full::SimdCmp                      0      0.00%      0.00% # attempts to use FU when none available
system.cpu.iq.fu_full::SimdCvt                      0      0.00%      0.00% # attempts to use FU when none available
system.cpu.iq.fu_full::SimdMisc                     0      0.00%      0.00% # attempts to use FU when none available
system.cpu.iq.fu_full::SimdMult                     0      0.00%      0.00% # attempts to use FU when none available
system.cpu.iq.fu_full::SimdMultAcc                  0      0.00%      0.00% # attempts to use FU when none available
system.cpu.iq.fu_full::SimdShift                    0      0.00%      0.00% # attempts to use FU when none available
system.cpu.iq.fu_full::SimdShiftAcc                 0      0.00%      0.00% # attempts to use FU when none available
system.cpu.iq.fu_full::SimdSqrt                     0      0.00%      0.00% # attempts to use FU when none available
system.cpu.iq.fu_full::SimdFloatAdd                 0      0.00%      0.00% # attempts to use FU when none available
system.cpu.iq.fu_full::SimdFloatAlu                 0      0.00%      0.00% # attempts to use FU when none available
system.cpu.iq.fu_full::SimdFloatCmp                 0      0.00%      0.00% # attempts to use FU when none available
system.cpu.iq.fu_full::SimdFloatCvt                 0      0.00%      0.00% # attempts to use FU when none available
system.cpu.iq.fu_full::SimdFloatDiv                 0      0.00%      0.00% # attempts to use FU when none available
system.cpu.iq.fu_full::SimdFloatMisc                0      0.00%      0.00% # attempts to use FU when none available
system.cpu.iq.fu_full::SimdFloatMult                0      0.00%      0.00% # attempts to use FU when none available
system.cpu.iq.fu_full::SimdFloatMultAcc             0      0.00%      0.00% # attempts to use FU when none available
system.cpu.iq.fu_full::SimdFloatSqrt                0      0.00%      0.00% # attempts to use FU when none available
system.cpu.iq.fu_full::MemRead                      0      0.00%      0.00% # attempts to use FU when none available
system.cpu.iq.fu_full::MemWrite                     1    100.00%    100.00% # attempts to use FU when none available
system.cpu.iq.fu_full::IprAccess                    0      0.00%    100.00% # attempts to use FU when none available
system.cpu.iq.fu_full::InstPrefetch                 0      0.00%    100.00% # attempts to use FU when none available
system.cpu.iq.FU_type_0::No_OpClass                17      0.00%      0.00% # Type of FU issued
system.cpu.iq.FU_type_0::IntAlu              20855233     59.81%     59.81% # Type of FU issued
system.cpu.iq.FU_type_0::IntMult                24599      0.07%     59.88% # Type of FU issued
system.cpu.iq.FU_type_0::IntDiv                     0      0.00%     59.88% # Type of FU issued
system.cpu.iq.FU_type_0::FloatAdd                  27      0.00%     59.88% # Type of FU issued
system.cpu.iq.FU_type_0::FloatCmp                   0      0.00%     59.88% # Type of FU issued
system.cpu.iq.FU_type_0::FloatCvt                  17      0.00%     59.88% # Type of FU issued
system.cpu.iq.FU_type_0::FloatMult                  0      0.00%     59.88% # Type of FU issued
system.cpu.iq.FU_type_0::FloatDiv                   5      0.00%     59.88% # Type of FU issued
system.cpu.iq.FU_type_0::FloatSqrt                  0      0.00%     59.88% # Type of FU issued
system.cpu.iq.FU_type_0::SimdAdd                    0      0.00%     59.88% # Type of FU issued
system.cpu.iq.FU_type_0::SimdAddAcc                 0      0.00%     59.88% # Type of FU issued
system.cpu.iq.FU_type_0::SimdAlu                    0      0.00%     59.88% # Type of FU issued
system.cpu.iq.FU_type_0::SimdCmp                    0      0.00%     59.88% # Type of FU issued
system.cpu.iq.FU_type_0::SimdCvt                    0      0.00%     59.88% # Type of FU issued
system.cpu.iq.FU_type_0::SimdMisc                   0      0.00%     59.88% # Type of FU issued
system.cpu.iq.FU_type_0::SimdMult                   0      0.00%     59.88% # Type of FU issued
system.cpu.iq.FU_type_0::SimdMultAcc                0      0.00%     59.88% # Type of FU issued
system.cpu.iq.FU_type_0::SimdShift                  0      0.00%     59.88% # Type of FU issued
system.cpu.iq.FU_type_0::SimdShiftAcc               0      0.00%     59.88% # Type of FU issued
system.cpu.iq.FU_type_0::SimdSqrt                   0      0.00%     59.88% # Type of FU issued
system.cpu.iq.FU_type_0::SimdFloatAdd               0      0.00%     59.88% # Type of FU issued
system.cpu.iq.FU_type_0::SimdFloatAlu               0      0.00%     59.88% # Type of FU issued
system.cpu.iq.FU_type_0::SimdFloatCmp               0      0.00%     59.88% # Type of FU issued
system.cpu.iq.FU_type_0::SimdFloatCvt               0      0.00%     59.88% # Type of FU issued
system.cpu.iq.FU_type_0::SimdFloatDiv               0      0.00%     59.88% # Type of FU issued
system.cpu.iq.FU_type_0::SimdFloatMisc              0      0.00%     59.88% # Type of FU issued
system.cpu.iq.FU_type_0::SimdFloatMult              0      0.00%     59.88% # Type of FU issued
system.cpu.iq.FU_type_0::SimdFloatMultAcc            0      0.00%     59.88% # Type of FU issued
system.cpu.iq.FU_type_0::SimdFloatSqrt              0      0.00%     59.88% # Type of FU issued
system.cpu.iq.FU_type_0::MemRead              7709790     22.11%     81.99% # Type of FU issued
system.cpu.iq.FU_type_0::MemWrite             6280698     18.01%    100.00% # Type of FU issued
system.cpu.iq.FU_type_0::IprAccess                  0      0.00%    100.00% # Type of FU issued
system.cpu.iq.FU_type_0::InstPrefetch               0      0.00%    100.00% # Type of FU issued
system.cpu.iq.FU_type_0::total               34870386                       # Type of FU issued
system.cpu.iq.rate                           0.445189                       # Inst issue rate
system.cpu.iq.fu_busy_cnt                           1                       # FU busy when requested
system.cpu.iq.fu_busy_rate                   0.000000                       # FU busy rate (busy events/executed inst)
system.cpu.iq.int_inst_queue_reads          147927531                       # Number of integer instruction queue reads
system.cpu.iq.int_inst_queue_writes          35722089                       # Number of integer instruction queue writes
system.cpu.iq.int_inst_queue_wakeup_accesses     34413886                       # Number of integer instruction queue wakeup accesses
system.cpu.iq.fp_inst_queue_reads               80230                       # Number of floating instruction queue reads
system.cpu.iq.fp_inst_queue_writes              40115                       # Number of floating instruction queue writes
system.cpu.iq.fp_inst_queue_wakeup_accesses        40115                       # Number of floating instruction queue wakeup accesses
system.cpu.iq.int_alu_accesses               34830255                       # Number of integer alu accesses
system.cpu.iq.fp_alu_accesses                   40115                       # Number of floating point alu accesses
system.cpu.iew.lsq.thread0.forwLoads            30021                       # Number of loads that had data forwarded from stores
system.cpu.iew.lsq.thread0.invAddrLoads             0                       # Number of loads ignored due to an invalid address
system.cpu.iew.lsq.thread0.squashedLoads       230531                       # Number of loads squashed
system.cpu.iew.lsq.thread0.ignoredResponses            5                       # Number of memory responses ignored because the instruction is squashed
system.cpu.iew.lsq.thread0.memOrderViolation            6                       # Number of memory ordering violations
system.cpu.iew.lsq.thread0.squashedStores        55884                       # Number of stores squashed
system.cpu.iew.lsq.thread0.invAddrSwpfs             0                       # Number of software prefetches ignored due to an invalid address
system.cpu.iew.lsq.thread0.blockedLoads             0                       # Number of blocked loads due to partial load-store forwarding
system.cpu.iew.lsq.thread0.rescheduledLoads        10004                       # Number of loads that were rescheduled
system.cpu.iew.lsq.thread0.cacheBlocked             5                       # Number of times an access to memory failed due to the cache being blocked
system.cpu.iew.iewIdleCycles                        0                       # Number of cycles IEW is idle
system.cpu.iew.iewSquashCycles                 413248                       # Number of cycles IEW is squashing
system.cpu.iew.iewBlockCycles                  187781                       # Number of cycles IEW is blocking
system.cpu.iew.iewUnblockCycles                 10611                       # Number of cycles IEW is unblocking
system.cpu.iew.iewDispatchedInsts            39557190                       # Number of instructions dispatched to IQ
system.cpu.iew.iewDispSquashedInsts            176515                       # Number of squashed instructions skipped by dispatch
system.cpu.iew.iewDispLoadInsts               7682819                       # Number of dispatched load instructions
system.cpu.iew.iewDispStoreInsts              6287609                       # Number of dispatched store instructions
system.cpu.iew.iewDispNonSpecInsts              40071                       # Number of dispatched non-speculative instructions
system.cpu.iew.iewIQFullEvents                     37                       # Number of times the IQ has become full, causing a stall
system.cpu.iew.iewLSQFullEvents                 10512                       # Number of times the LSQ has become full, causing a stall
system.cpu.iew.memOrderViolationEvents              6                       # Number of memory order violations
system.cpu.iew.predictedTakenIncorrect         347734                       # Number of branches that were predicted taken incorrectly
system.cpu.iew.predictedNotTakenIncorrect        68814                       # Number of branches that were predicted not taken incorrectly
system.cpu.iew.branchMispredicts               416548                       # Number of branch mispredicts detected at execute
system.cpu.iew.iewExecutedInsts              34590159                       # Number of executed instructions
system.cpu.iew.iewExecLoadInsts               7599165                       # Number of load instructions executed
system.cpu.iew.iewExecSquashedInsts            280227                       # Number of squashed instructions skipped in execute
system.cpu.iew.exec_swp                             0                       # number of swp insts executed
system.cpu.iew.exec_nop                       4635779                       # number of nop insts executed
system.cpu.iew.exec_refs                     13856618                       # number of memory reference insts executed
system.cpu.iew.exec_branches                  5130631                       # Number of branches executed
system.cpu.iew.exec_stores                    6257453                       # Number of stores executed
system.cpu.iew.exec_rate                     0.441611                       # Inst execution rate
system.cpu.iew.wb_sent                       34495050                       # cumulative count of insts sent to commit
system.cpu.iew.wb_count                      34454001                       # cumulative count of insts written-back
system.cpu.iew.wb_producers                   8229470                       # num instructions producing a value
system.cpu.iew.wb_consumers                   9087005                       # num instructions consuming a value
system.cpu.iew.wb_rate                       0.439873                       # insts written-back per cycle
system.cpu.iew.wb_fanout                     0.905631                       # average fanout of values written-back
system.cpu.commit.commitSquashedInsts          910674                       # The number of squashed insts skipped by commit
system.cpu.commit.commitNonSpecStalls           80102                       # The number of times commit has been forced to stall to communicate backwards
system.cpu.commit.branchMispredicts            410195                       # The number of times a branch was mispredicted
system.cpu.commit.committed_per_cycle::samples     77682241                       # Number of insts commited each cycle
system.cpu.commit.committed_per_cycle::mean     0.497343                       # Number of insts commited each cycle
system.cpu.commit.committed_per_cycle::stdev     0.751438                       # Number of insts commited each cycle
system.cpu.commit.committed_per_cycle::underflows            0      0.00%      0.00% # Number of insts commited each cycle
system.cpu.commit.committed_per_cycle::0     51269552     66.00%     66.00% # Number of insts commited each cycle
system.cpu.commit.committed_per_cycle::1     14190692     18.27%     84.27% # Number of insts commited each cycle
system.cpu.commit.committed_per_cycle::2     12221997     15.73%    100.00% # Number of insts commited each cycle
system.cpu.commit.committed_per_cycle::overflows            0      0.00%    100.00% # Number of insts commited each cycle
system.cpu.commit.committed_per_cycle::min_value            0                       # Number of insts commited each cycle
system.cpu.commit.committed_per_cycle::max_value            2                       # Number of insts commited each cycle
system.cpu.commit.committed_per_cycle::total     77682241                       # Number of insts commited each cycle
system.cpu.commit.committedInsts             38634686                       # Number of instructions committed
system.cpu.commit.committedOps               38634686                       # Number of ops (including micro ops) committed
system.cpu.commit.swp_count                         0                       # Number of s/w prefetches committed
system.cpu.commit.refs                       13684013                       # Number of memory references committed
system.cpu.commit.loads                       7452288                       # Number of loads committed
system.cpu.commit.membars                       40032                       # Number of memory barriers committed
system.cpu.commit.branches                    5011672                       # Number of branches committed
system.cpu.commit.fp_insts                      40115                       # Number of committed floating point instructions.
system.cpu.commit.int_insts                  33506928                       # Number of committed integer instructions.
system.cpu.commit.function_calls               596457                       # Number of function calls committed.
system.cpu.commit.op_class_0::No_OpClass      4554079     11.79%     11.79% # Class of committed instruction
system.cpu.commit.op_class_0::IntAlu         20332065     52.63%     64.41% # Class of committed instruction
system.cpu.commit.op_class_0::IntMult           24447      0.06%     64.48% # Class of committed instruction
system.cpu.commit.op_class_0::IntDiv                0      0.00%     64.48% # Class of committed instruction
system.cpu.commit.op_class_0::FloatAdd             27      0.00%     64.48% # Class of committed instruction
system.cpu.commit.op_class_0::FloatCmp              0      0.00%     64.48% # Class of committed instruction
system.cpu.commit.op_class_0::FloatCvt             17      0.00%     64.48% # Class of committed instruction
system.cpu.commit.op_class_0::FloatMult             0      0.00%     64.48% # Class of committed instruction
system.cpu.commit.op_class_0::FloatDiv              5      0.00%     64.48% # Class of committed instruction
system.cpu.commit.op_class_0::FloatSqrt             0      0.00%     64.48% # Class of committed instruction
system.cpu.commit.op_class_0::SimdAdd               0      0.00%     64.48% # Class of committed instruction
system.cpu.commit.op_class_0::SimdAddAcc            0      0.00%     64.48% # Class of committed instruction
system.cpu.commit.op_class_0::SimdAlu               0      0.00%     64.48% # Class of committed instruction
system.cpu.commit.op_class_0::SimdCmp               0      0.00%     64.48% # Class of committed instruction
system.cpu.commit.op_class_0::SimdCvt               0      0.00%     64.48% # Class of committed instruction
system.cpu.commit.op_class_0::SimdMisc              0      0.00%     64.48% # Class of committed instruction
system.cpu.commit.op_class_0::SimdMult              0      0.00%     64.48% # Class of committed instruction
system.cpu.commit.op_class_0::SimdMultAcc            0      0.00%     64.48% # Class of committed instruction
system.cpu.commit.op_class_0::SimdShift             0      0.00%     64.48% # Class of committed instruction
system.cpu.commit.op_class_0::SimdShiftAcc            0      0.00%     64.48% # Class of committed instruction
system.cpu.commit.op_class_0::SimdSqrt              0      0.00%     64.48% # Class of committed instruction
system.cpu.commit.op_class_0::SimdFloatAdd            0      0.00%     64.48% # Class of committed instruction
system.cpu.commit.op_class_0::SimdFloatAlu            0      0.00%     64.48% # Class of committed instruction
system.cpu.commit.op_class_0::SimdFloatCmp            0      0.00%     64.48% # Class of committed instruction
system.cpu.commit.op_class_0::SimdFloatCvt            0      0.00%     64.48% # Class of committed instruction
system.cpu.commit.op_class_0::SimdFloatDiv            0      0.00%     64.48% # Class of committed instruction
system.cpu.commit.op_class_0::SimdFloatMisc            0      0.00%     64.48% # Class of committed instruction
system.cpu.commit.op_class_0::SimdFloatMult            0      0.00%     64.48% # Class of committed instruction
system.cpu.commit.op_class_0::SimdFloatMultAcc            0      0.00%     64.48% # Class of committed instruction
system.cpu.commit.op_class_0::SimdFloatSqrt            0      0.00%     64.48% # Class of committed instruction
system.cpu.commit.op_class_0::MemRead         7492320     19.39%     83.87% # Class of committed instruction
system.cpu.commit.op_class_0::MemWrite        6231726     16.13%    100.00% # Class of committed instruction
system.cpu.commit.op_class_0::IprAccess             0      0.00%    100.00% # Class of committed instruction
system.cpu.commit.op_class_0::InstPrefetch            0      0.00%    100.00% # Class of committed instruction
system.cpu.commit.op_class_0::total          38634686                       # Class of committed instruction
system.cpu.commit.bw_lim_events              12221997                       # number cycles where commit BW limit reached
system.cpu.rob.rob_reads                    104965993                       # The number of ROB reads
system.cpu.rob.rob_writes                    79675469                       # The number of ROB writes
system.cpu.timesIdled                             653                       # Number of times that the entire CPU went into an idle state and unscheduled itself
system.cpu.idleCycles                           60235                       # Total number of cycles that the CPU has spent unscheduled due to idling
system.cpu.committedInsts                    34080624                       # Number of Instructions Simulated
system.cpu.committedOps                      34080624                       # Number of Ops (including micro ops) Simulated
system.cpu.cpi                               2.298292                       # CPI: Cycles Per Instruction
system.cpu.cpi_total                         2.298292                       # CPI: Total CPI of All Threads
system.cpu.ipc                               0.435106                       # IPC: Instructions Per Cycle
system.cpu.ipc_total                         0.435106                       # IPC: Total IPC of All Threads
system.cpu.int_regfile_reads                 46688455                       # number of integer regfile reads
system.cpu.int_regfile_writes                23467899                       # number of integer regfile writes
system.cpu.fp_regfile_reads                     40088                       # number of floating regfile reads
system.cpu.fp_regfile_writes                       52                       # number of floating regfile writes
system.cpu.misc_regfile_reads                  120104                       # number of misc regfile reads
system.cpu.misc_regfile_writes                  80071                       # number of misc regfile writes
system.cpu.dcache.tags.pwrStateResidencyTicks::UNDEFINED  39163611000                       # Cumulative time (in ticks) in various power states
system.cpu.dcache.tags.replacements            475551                       # number of replacements
system.cpu.dcache.tags.tagsinuse           979.077498                       # Cycle average of tags in use
system.cpu.dcache.tags.total_refs            11157775                       # Total number of references to valid blocks.
system.cpu.dcache.tags.sampled_refs            475551                       # Sample count of references to valid blocks.
system.cpu.dcache.tags.avg_refs             23.462836                       # Average number of references to valid blocks.
system.cpu.dcache.tags.warmup_cycle        4701663000                       # Cycle when the warmup percentage was hit.
system.cpu.dcache.tags.occ_blocks::cpu.data   979.077498                       # Average occupied blocks per requestor
system.cpu.dcache.tags.occ_percent::cpu.data     0.956130                       # Average percentage of cache occupancy
system.cpu.dcache.tags.occ_percent::total     0.956130                       # Average percentage of cache occupancy
system.cpu.dcache.tags.occ_task_id_blocks::1024         1024                       # Occupied blocks per task id
system.cpu.dcache.tags.age_task_id_blocks_1024::0           65                       # Occupied blocks per task id
system.cpu.dcache.tags.age_task_id_blocks_1024::1          409                       # Occupied blocks per task id
system.cpu.dcache.tags.age_task_id_blocks_1024::2           49                       # Occupied blocks per task id
system.cpu.dcache.tags.age_task_id_blocks_1024::3          501                       # Occupied blocks per task id
system.cpu.dcache.tags.occ_task_id_percent::1024            1                       # Percentage of cache occupancy per task id
system.cpu.dcache.tags.tag_accesses          28053353                       # Number of tag accesses
system.cpu.dcache.tags.data_accesses         28053353                       # Number of data accesses
system.cpu.dcache.pwrStateResidencyTicks::UNDEFINED  39163611000                       # Cumulative time (in ticks) in various power states
system.cpu.dcache.ReadReq_hits::cpu.data      6826058                       # number of ReadReq hits
system.cpu.dcache.ReadReq_hits::total         6826058                       # number of ReadReq hits
system.cpu.dcache.WriteReq_hits::cpu.data      4852716                       # number of WriteReq hits
system.cpu.dcache.WriteReq_hits::total        4852716                       # number of WriteReq hits
system.cpu.dcache.LoadLockedReq_hits::cpu.data        40030                       # number of LoadLockedReq hits
system.cpu.dcache.LoadLockedReq_hits::total        40030                       # number of LoadLockedReq hits
system.cpu.dcache.StoreCondReq_hits::cpu.data        40032                       # number of StoreCondReq hits
system.cpu.dcache.StoreCondReq_hits::total        40032                       # number of StoreCondReq hits
system.cpu.dcache.demand_hits::cpu.data      11678774                       # number of demand (read+write) hits
system.cpu.dcache.demand_hits::total         11678774                       # number of demand (read+write) hits
system.cpu.dcache.overall_hits::cpu.data     11678774                       # number of overall hits
system.cpu.dcache.overall_hits::total        11678774                       # number of overall hits
system.cpu.dcache.ReadReq_misses::cpu.data       690572                       # number of ReadReq misses
system.cpu.dcache.ReadReq_misses::total        690572                       # number of ReadReq misses
system.cpu.dcache.WriteReq_misses::cpu.data      1338977                       # number of WriteReq misses
system.cpu.dcache.WriteReq_misses::total      1338977                       # number of WriteReq misses
system.cpu.dcache.LoadLockedReq_misses::cpu.data            4                       # number of LoadLockedReq misses
system.cpu.dcache.LoadLockedReq_misses::total            4                       # number of LoadLockedReq misses
system.cpu.dcache.demand_misses::cpu.data      2029549                       # number of demand (read+write) misses
system.cpu.dcache.demand_misses::total        2029549                       # number of demand (read+write) misses
system.cpu.dcache.overall_misses::cpu.data      2029549                       # number of overall misses
system.cpu.dcache.overall_misses::total       2029549                       # number of overall misses
system.cpu.dcache.ReadReq_miss_latency::cpu.data  44382225000                       # number of ReadReq miss cycles
system.cpu.dcache.ReadReq_miss_latency::total  44382225000                       # number of ReadReq miss cycles
system.cpu.dcache.WriteReq_miss_latency::cpu.data  77955315999                       # number of WriteReq miss cycles
system.cpu.dcache.WriteReq_miss_latency::total  77955315999                       # number of WriteReq miss cycles
system.cpu.dcache.LoadLockedReq_miss_latency::cpu.data       266000                       # number of LoadLockedReq miss cycles
system.cpu.dcache.LoadLockedReq_miss_latency::total       266000                       # number of LoadLockedReq miss cycles
system.cpu.dcache.demand_miss_latency::cpu.data 122337540999                       # number of demand (read+write) miss cycles
system.cpu.dcache.demand_miss_latency::total 122337540999                       # number of demand (read+write) miss cycles
system.cpu.dcache.overall_miss_latency::cpu.data 122337540999                       # number of overall miss cycles
system.cpu.dcache.overall_miss_latency::total 122337540999                       # number of overall miss cycles
system.cpu.dcache.ReadReq_accesses::cpu.data      7516630                       # number of ReadReq accesses(hits+misses)
system.cpu.dcache.ReadReq_accesses::total      7516630                       # number of ReadReq accesses(hits+misses)
system.cpu.dcache.WriteReq_accesses::cpu.data      6191693                       # number of WriteReq accesses(hits+misses)
system.cpu.dcache.WriteReq_accesses::total      6191693                       # number of WriteReq accesses(hits+misses)
system.cpu.dcache.LoadLockedReq_accesses::cpu.data        40034                       # number of LoadLockedReq accesses(hits+misses)
system.cpu.dcache.LoadLockedReq_accesses::total        40034                       # number of LoadLockedReq accesses(hits+misses)
system.cpu.dcache.StoreCondReq_accesses::cpu.data        40032                       # number of StoreCondReq accesses(hits+misses)
system.cpu.dcache.StoreCondReq_accesses::total        40032                       # number of StoreCondReq accesses(hits+misses)
system.cpu.dcache.demand_accesses::cpu.data     13708323                       # number of demand (read+write) accesses
system.cpu.dcache.demand_accesses::total     13708323                       # number of demand (read+write) accesses
system.cpu.dcache.overall_accesses::cpu.data     13708323                       # number of overall (read+write) accesses
system.cpu.dcache.overall_accesses::total     13708323                       # number of overall (read+write) accesses
system.cpu.dcache.ReadReq_miss_rate::cpu.data     0.091873                       # miss rate for ReadReq accesses
[...]
system.cpu.dcache.demand_mshr_misses::cpu.data       476574                       # number of demand (read+write) MSHR misses
system.cpu.dcache.demand_mshr_misses::total       476574                       # number of demand (read+write) MSHR misses
system.cpu.dcache.overall_mshr_misses::cpu.data       476574                       # number of overall MSHR misses
system.cpu.dcache.overall_mshr_misses::total       476574                       # number of overall MSHR misses
system.cpu.dcache.ReadReq_mshr_miss_latency::cpu.data  15111889500                       # number of ReadReq MSHR miss cycles
system.cpu.dcache.ReadReq_mshr_miss_latency::total  15111889500                       # number of ReadReq MSHR miss cycles
system.cpu.dcache.WriteReq_mshr_miss_latency::cpu.data  14061972500                       # number of WriteReq MSHR miss cycles
system.cpu.dcache.WriteReq_mshr_miss_latency::total  14061972500                       # number of WriteReq MSHR miss cycles
system.cpu.dcache.LoadLockedReq_mshr_miss_latency::cpu.data        64500                       # number of LoadLockedReq MSHR miss cycles
system.cpu.dcache.LoadLockedReq_mshr_miss_latency::total        64500                       # number of LoadLockedReq MSHR miss cycles
system.cpu.dcache.demand_mshr_miss_latency::cpu.data  29173862000                       # number of demand (read+write) MSHR miss cycles
system.cpu.dcache.demand_mshr_miss_latency::total  29173862000                       # number of demand (read+write) MSHR miss cycles
system.cpu.dcache.overall_mshr_miss_latency::cpu.data  29173862000                       # number of overall MSHR miss cycles
system.cpu.dcache.overall_mshr_miss_latency::total  29173862000                       # number of overall MSHR miss cycles
system.cpu.dcache.ReadReq_mshr_miss_rate::cpu.data     0.032378                       # mshr miss rate for ReadReq accesses
system.cpu.dcache.ReadReq_mshr_miss_rate::total     0.032378                       # mshr miss rate for ReadReq accesses
system.cpu.dcache.WriteReq_mshr_miss_rate::cpu.data     0.037663                       # mshr miss rate for WriteReq accesses
system.cpu.dcache.WriteReq_mshr_miss_rate::total     0.037663                       # mshr miss rate for WriteReq accesses
system.cpu.dcache.LoadLockedReq_mshr_miss_rate::cpu.data     0.000025                       # mshr miss rate for LoadLockedReq accesses
system.cpu.dcache.LoadLockedReq_mshr_miss_rate::total     0.000025                       # mshr miss rate for LoadLockedReq accesses
system.cpu.dcache.demand_mshr_miss_rate::cpu.data     0.034765                       # mshr miss rate for demand accesses
system.cpu.dcache.demand_mshr_miss_rate::total     0.034765                       # mshr miss rate for demand accesses
system.cpu.dcache.overall_mshr_miss_rate::cpu.data     0.034765                       # mshr miss rate for overall accesses
system.cpu.dcache.overall_mshr_miss_rate::total     0.034765                       # mshr miss rate for overall accesses
system.cpu.dcache.ReadReq_avg_mshr_miss_latency::cpu.data 62093.278247                       # average ReadReq mshr miss latency
system.cpu.dcache.ReadReq_avg_mshr_miss_latency::total 62093.278247                       # average ReadReq mshr miss latency
system.cpu.dcache.WriteReq_avg_mshr_miss_latency::cpu.data 60300.053602                       # average WriteReq mshr miss latency
system.cpu.dcache.WriteReq_avg_mshr_miss_latency::total 60300.053602                       # average WriteReq mshr miss latency
system.cpu.dcache.LoadLockedReq_avg_mshr_miss_latency::cpu.data        64500                       # average LoadLockedReq mshr miss latency
system.cpu.dcache.LoadLockedReq_avg_mshr_miss_latency::total        64500                       # average LoadLockedReq mshr miss latency
system.cpu.dcache.demand_avg_mshr_miss_latency::cpu.data 61215.806989                       # average overall mshr miss latency
system.cpu.dcache.demand_avg_mshr_miss_latency::total 61215.806989                       # average overall mshr miss latency
system.cpu.dcache.overall_avg_mshr_miss_latency::cpu.data 61215.806989                       # average overall mshr miss latency
system.cpu.dcache.overall_avg_mshr_miss_latency::total 61215.806989                       # average overall mshr miss latency
system.cpu.icache.tags.pwrStateResidencyTicks::UNDEFINED  39163611000                       # Cumulative time (in ticks) in various power states
system.cpu.icache.tags.replacements               342                       # number of replacements
system.cpu.icache.tags.tagsinuse           442.107138                       # Cycle average of tags in use
system.cpu.icache.tags.total_refs              929754                       # Total number of references to valid blocks.
system.cpu.icache.tags.sampled_refs               342                       # Sample count of references to valid blocks.
system.cpu.icache.tags.avg_refs           2718.578947                       # Average number of references to valid blocks.
system.cpu.icache.tags.warmup_cycle                 0                       # Cycle when the warmup percentage was hit.
system.cpu.icache.tags.occ_blocks::cpu.inst   442.107138                       # Average occupied blocks per requestor
system.cpu.icache.tags.occ_percent::cpu.inst     0.863491                       # Average percentage of cache occupancy
system.cpu.icache.tags.occ_percent::total     0.863491                       # Average percentage of cache occupancy
system.cpu.icache.tags.occ_task_id_blocks::1024          474                       # Occupied blocks per task id
system.cpu.icache.tags.age_task_id_blocks_1024::0           55                       # Occupied blocks per task id
system.cpu.icache.tags.age_task_id_blocks_1024::3           37                       # Occupied blocks per task id
system.cpu.icache.tags.age_task_id_blocks_1024::4          382                       # Occupied blocks per task id
system.cpu.icache.tags.occ_task_id_percent::1024     0.925781                       # Percentage of cache occupancy per task id
system.cpu.icache.tags.tag_accesses          31286438                       # Number of tag accesses
system.cpu.icache.tags.data_accesses         31286438                       # Number of data accesses
system.cpu.icache.pwrStateResidencyTicks::UNDEFINED  39163611000                       # Cumulative time (in ticks) in various power states
system.cpu.icache.ReadReq_hits::cpu.inst     15641790                       # number of ReadReq hits
system.cpu.icache.ReadReq_hits::total        15641790                       # number of ReadReq hits
system.cpu.icache.demand_hits::cpu.inst      15641790                       # number of demand (read+write) hits
system.cpu.icache.demand_hits::total         15641790                       # number of demand (read+write) hits
system.cpu.icache.overall_hits::cpu.inst     15641790                       # number of overall hits
system.cpu.icache.overall_hits::total        15641790                       # number of overall hits
system.cpu.icache.ReadReq_misses::cpu.inst         1021                       # number of ReadReq misses
system.cpu.icache.ReadReq_misses::total          1021                       # number of ReadReq misses
system.cpu.icache.demand_misses::cpu.inst         1021                       # number of demand (read+write) misses
system.cpu.icache.demand_misses::total           1021                       # number of demand (read+write) misses
system.cpu.icache.overall_misses::cpu.inst         1021                       # number of overall misses
system.cpu.icache.overall_misses::total          1021                       # number of overall misses
system.cpu.icache.ReadReq_miss_latency::cpu.inst     59661500                       # number of ReadReq miss cycles
system.cpu.icache.ReadReq_miss_latency::total     59661500                       # number of ReadReq miss cycles
system.cpu.icache.demand_miss_latency::cpu.inst     59661500                       # number of demand (read+write) miss cycles
system.cpu.icache.demand_miss_latency::total     59661500                       # number of demand (read+write) miss cycles
system.cpu.icache.overall_miss_latency::cpu.inst     59661500                       # number of overall miss cycles
system.cpu.icache.overall_miss_latency::total     59661500                       # number of overall miss cycles
system.cpu.icache.ReadReq_accesses::cpu.inst     15642811                       # number of ReadReq accesses(hits+misses)
system.cpu.icache.ReadReq_accesses::total     15642811                       # number of ReadReq accesses(hits+misses)
system.cpu.icache.demand_accesses::cpu.inst     15642811                       # number of demand (read+write) accesses
system.cpu.icache.demand_accesses::total     15642811                       # number of demand (read+write) accesses
system.cpu.icache.overall_accesses::cpu.inst     15642811                       # number of overall (read+write) accesses
system.cpu.icache.overall_accesses::total     15642811                       # number of overall (read+write) accesses
system.cpu.icache.ReadReq_miss_rate::cpu.inst     0.000065                       # miss rate for ReadReq accesses
system.cpu.icache.ReadReq_miss_rate::total     0.000065                       # miss rate for ReadReq accesses
system.cpu.icache.demand_miss_rate::cpu.inst     0.000065                       # miss rate for demand accesses
system.cpu.icache.demand_miss_rate::total     0.000065                       # miss rate for demand accesses
system.cpu.icache.overall_miss_rate::cpu.inst     0.000065                       # miss rate for overall accesses
system.cpu.icache.overall_miss_rate::total     0.000065                       # miss rate for overall accesses
system.cpu.icache.ReadReq_avg_miss_latency::cpu.inst 58434.378061                       # average ReadReq miss latency
system.cpu.icache.ReadReq_avg_miss_latency::total 58434.378061                       # average ReadReq miss latency
system.cpu.icache.demand_avg_miss_latency::cpu.inst 58434.378061                       # average overall miss latency
system.cpu.icache.demand_avg_miss_latency::total 58434.378061                       # average overall miss latency
system.cpu.icache.overall_avg_miss_latency::cpu.inst 58434.378061                       # average overall miss latency
system.cpu.icache.overall_avg_miss_latency::total 58434.378061                       # average overall miss latency
system.cpu.icache.blocked_cycles::no_mshrs            0                       # number of cycles access was blocked
system.cpu.icache.blocked_cycles::no_targets            0                       # number of cycles access was blocked
system.cpu.icache.blocked::no_mshrs                 0                       # number of cycles access was blocked
system.cpu.icache.blocked::no_targets               0                       # number of cycles access was blocked
system.cpu.icache.avg_blocked_cycles::no_mshrs          nan                       # average number of cycles each access was blocked
system.cpu.icache.avg_blocked_cycles::no_targets          nan                       # average number of cycles each access was blocked
system.cpu.icache.writebacks::writebacks          342                       # number of writebacks
system.cpu.icache.writebacks::total               342                       # number of writebacks
system.cpu.icache.ReadReq_mshr_hits::cpu.inst          205                       # number of ReadReq MSHR hits
system.cpu.icache.ReadReq_mshr_hits::total          205                       # number of ReadReq MSHR hits
system.cpu.icache.demand_mshr_hits::cpu.inst          205                       # number of demand (read+write) MSHR hits
system.cpu.icache.demand_mshr_hits::total          205                       # number of demand (read+write) MSHR hits
system.cpu.icache.overall_mshr_hits::cpu.inst          205                       # number of overall MSHR hits
system.cpu.icache.overall_mshr_hits::total          205                       # number of overall MSHR hits
system.cpu.icache.ReadReq_mshr_misses::cpu.inst          816                       # number of ReadReq MSHR misses
system.cpu.icache.ReadReq_mshr_misses::total          816                       # number of ReadReq MSHR misses
system.cpu.icache.demand_mshr_misses::cpu.inst          816                       # number of demand (read+write) MSHR misses
system.cpu.icache.demand_mshr_misses::total          816                       # number of demand (read+write) MSHR misses
system.cpu.icache.overall_mshr_misses::cpu.inst          816                       # number of overall MSHR misses
system.cpu.icache.overall_mshr_misses::total          816                       # number of overall MSHR misses
system.cpu.icache.ReadReq_mshr_miss_latency::cpu.inst     48538500                       # number of ReadReq MSHR miss cycles
system.cpu.icache.ReadReq_mshr_miss_latency::total     48538500                       # number of ReadReq MSHR miss cycles
system.cpu.icache.demand_mshr_miss_latency::cpu.inst     48538500                       # number of demand (read+write) MSHR miss cycles
system.cpu.icache.demand_mshr_miss_latency::total     48538500                       # number of demand (read+write) MSHR miss cycles
system.cpu.icache.overall_mshr_miss_latency::cpu.inst     48538500                       # number of overall MSHR miss cycles
system.cpu.icache.overall_mshr_miss_latency::total     48538500                       # number of overall MSHR miss cycles
system.cpu.icache.ReadReq_mshr_miss_rate::cpu.inst     0.000052                       # mshr miss rate for ReadReq accesses
system.cpu.icache.ReadReq_mshr_miss_rate::total     0.000052                       # mshr miss rate for ReadReq accesses
system.cpu.icache.demand_mshr_miss_rate::cpu.inst     0.000052                       # mshr miss rate for demand accesses
system.cpu.icache.demand_mshr_miss_rate::total     0.000052                       # mshr miss rate for demand accesses
system.cpu.icache.overall_mshr_miss_rate::cpu.inst     0.000052                       # mshr miss rate for overall accesses
system.cpu.icache.overall_mshr_miss_rate::total     0.000052                       # mshr miss rate for overall accesses
system.cpu.icache.ReadReq_avg_mshr_miss_latency::cpu.inst 59483.455882                       # average ReadReq mshr miss latency
system.cpu.icache.ReadReq_avg_mshr_miss_latency::total 59483.455882                       # average ReadReq mshr miss latency
system.cpu.icache.demand_avg_mshr_miss_latency::cpu.inst 59483.455882                       # average overall mshr miss latency
system.cpu.icache.demand_avg_mshr_miss_latency::total 59483.455882                       # average overall mshr miss latency
system.cpu.icache.overall_avg_mshr_miss_latency::cpu.inst 59483.455882                       # average overall mshr miss latency
system.cpu.icache.overall_avg_mshr_miss_latency::total 59483.455882                       # average overall mshr miss latency
system.membus.snoop_filter.tot_requests        953284                       # Total number of requests made to the snoop filter.
system.membus.snoop_filter.hit_single_requests       475893                       # Number of requests hitting in the snoop filter with a single holder of the requested data.
system.membus.snoop_filter.hit_multi_requests            0                       # Number of requests hitting in the snoop filter with multiple (>1) holders of the requested data.
system.membus.snoop_filter.tot_snoops               0                       # Total number of snoops made to the snoop filter.
system.membus.snoop_filter.hit_single_snoops            0                       # Number of snoops hitting in the snoop filter with a single holder of the requested data.
system.membus.snoop_filter.hit_multi_snoops            0                       # Number of snoops hitting in the snoop filter with multiple (>1) holders of the requested data.
system.membus.pwrStateResidencyTicks::UNDEFINED  39163611000                       # Cumulative time (in ticks) in various power states
system.membus.trans_dist::ReadResp             244191                       # Transaction distribution
system.membus.trans_dist::WritebackDirty       256609                       # Transaction distribution
system.membus.trans_dist::WritebackClean          342                       # Transaction distribution
system.membus.trans_dist::CleanEvict           218942                       # Transaction distribution
system.membus.trans_dist::ReadExReq            233200                       # Transaction distribution
system.membus.trans_dist::ReadExResp           233200                       # Transaction distribution
system.membus.trans_dist::ReadCleanReq            816                       # Transaction distribution
system.membus.trans_dist::ReadSharedReq        243375                       # Transaction distribution
system.membus.pkt_count_system.cpu.icache.mem_side::system.mem_ctrls.port         1974                       # Packet count per connected master and slave (bytes)
system.membus.pkt_count_system.cpu.dcache.mem_side::system.mem_ctrls.port      1428701                       # Packet count per connected master and slave (bytes)
system.membus.pkt_count::total                1430675                       # Packet count per connected master and slave (bytes)
system.membus.pkt_size_system.cpu.icache.mem_side::system.mem_ctrls.port        74112                       # Cumulative packet size per connected master and slave (bytes)
system.membus.pkt_size_system.cpu.dcache.mem_side::system.mem_ctrls.port     46923776                       # Cumulative packet size per connected master and slave (bytes)
system.membus.pkt_size::total                46997888                       # Cumulative packet size per connected master and slave (bytes)
system.membus.snoops                                0                       # Total snoops (count)
system.membus.snoopTraffic                          0                       # Total snoop traffic (bytes)
system.membus.snoop_fanout::samples            477391                       # Request fanout histogram
system.membus.snoop_fanout::mean                    0                       # Request fanout histogram
system.membus.snoop_fanout::stdev                   0                       # Request fanout histogram
system.membus.snoop_fanout::underflows              0      0.00%      0.00% # Request fanout histogram
system.membus.snoop_fanout::0                  477391    100.00%    100.00% # Request fanout histogram
system.membus.snoop_fanout::1                       0      0.00%    100.00% # Request fanout histogram
system.membus.snoop_fanout::2                       0      0.00%    100.00% # Request fanout histogram
system.membus.snoop_fanout::overflows               0      0.00%    100.00% # Request fanout histogram
system.membus.snoop_fanout::min_value               0                       # Request fanout histogram
system.membus.snoop_fanout::max_value               0                       # Request fanout histogram
system.membus.snoop_fanout::total              477391                       # Request fanout histogram
system.membus.reqLayer0.occupancy          2128475500                       # Layer occupancy (ticks)
system.membus.reqLayer0.utilization               5.4                       # Layer utilization (%)
system.membus.respLayer1.occupancy            4324749                       # Layer occupancy (ticks)
system.membus.respLayer1.utilization              0.0                       # Layer utilization (%)
system.membus.respLayer2.occupancy         2519136750                       # Layer occupancy (ticks)
system.membus.respLayer2.utilization              6.4                       # Layer utilization (%)

---------- End Simulation Statistics   ----------
